$# LS-DYNA Keyword file created by LS-PrePost 3.2 - 16Jan2012(01:28)
$# Created on Feb-08-2014 (15:22:20)
*KEYWORD  
*TITLE
$# title
CAAofS - Semestral Project - D.Bro¿yna
*CONTROL_OUTPUT
$#   npopt    neecho    nrefup    iaccop     opifs    ipnint    ikedit    iflush
         0         0         0         0     0.000         0       100      5000
$#   iprtf    ierode     tet10    msgmax    ipcurv
         0         0         2        50         0
*CONTROL_TERMINATION
$#  endtim    endcyc     dtmin    endeng    endmas
  0.005000         0     0.000     0.000     0.000
*CONTROL_TIMESTEP
$#  dtinit    tssfac      isdo    tslimt     dt2ms      lctm     erode     ms1st
  0.001000  0.900000         0     0.000     0.000         0         0         0
$#  dt2msf   dt2mslc     imscl
     0.000         0         0
*BOUNDARY_SPC_SET_ID
$#      id                                                               heading
         2upper_anti_buckle
$#    nsid       cid      dofx      dofy      dofz     dofrx     dofry     dofrz
         3         0         1         1         0         0         0         1
*SET_NODE_LIST_TITLE
top_buckle
$#     sid       da1       da2       da3       da4    solver
         3     0.000     0.000     0.000     0.000MECH
$#    nid1      nid2      nid3      nid4      nid5      nid6      nid7      nid8
      6310      6311      6312      6313      6314      6315      6436      6437
      6438      6439      6440      6541      6542      6543      6544      6545
      6646      6647      6648      6649      6650      6751      6752      6753
      6754      6755      6856      6857      6858      6859      6940      6941
      6942      6943      6944      6945      7066      7067      7068      7069
      7070      7171      7172      7173      7174      6315      6314      6313
      6312      6311      6310      7381      7382      7383      7384      7385
      7486      7487      7488      7489      7570      7571      7572      7573
      7574      6755      6754      6753      6752      6751      6650      7801
      7802      7803      7804      7805      7906      7907      7908      7909
      7910      8011      8012      8013      8014      8015      8116      8117
      8118      8119      8200      8201      8202      8203      8204      8205
      8326      8327      8328      8329      8330      8431      8432      8433
      8434      8435      8536      8537      8538      8539      8540      8641
      8642      8643      8644      8645      8746      8747      8748      8749
      8830      8831      8832      8833      8834      7385      7384      7383
      7382      7381      6310      6859      6858      6857      6856      6755
      7574      7573      7572      7571      7570      9271      9272      9273
      9274      9275      9376      9377      9378      9379      9460      9461
      9462      9463      9464      9275      9274      9273      9272      9271
$ ... 44 like lines cut
*BOUNDARY_SPC_SET_ID
$#      id                                                               heading
         3lower_anti_buckle
$#    nsid       cid      dofx      dofy      dofz     dofrx     dofry     dofrz
         1         0         1         1         1         1         1         1
*SET_NODE_LIST_TITLE
fix_bottom
$#     sid       da1       da2       da3       da4    solver
         1     0.000     0.000     0.000     0.000MECH
$#    nid1      nid2      nid3      nid4      nid5      nid6      nid7      nid8
      6335      6336      6337      6338      6339      6340      6460      6461
      6462      6463      6464      6565      6566      6567      6568      6569
      6670      6671      6672      6673      6674      6775      6776      6777
      6778      6779      6860      6861      6862      6863      6965      6966
      6967      6968      6969      6970      7090      7091      7092      7093
      7094      6335      7196      7197      7198      7199      6340      6339
      6338      6337      6336      7405      7406      7407      7408      7409
      7490      7491      7492      7493      6775      7596      7597      7598
      7599      7600      6670      6779      6778      6777      6776      7825
      7826      7827      7828      7829      7930      7931      7932      7933
      7934      8035      8036      8037      8038      8039      8120      8121
      8122      8123      8225      8226      8227      8228      8229      8230
      8350      8351      8352      8353      8354      8455      8456      8457
      8458      8459      8560      8561      8562      8563      8564      8665
      8666      8667      8668      8669      8750      8751      8752      8753
      7405      8856      8857      8858      8859      8860      6340      7409
      7408      7407      7406      6775      6863      6862      6861      6860
      7600      7599      7598      7597      7596      9295      9296      9297
      9298      9299      9380      9381      9382      9383      9295      9486
      9487      9488      9489      9490      7600      9299      9298      9297
$ ... 44 like lines cut
*CONTACT_AUTOMATIC_GENERAL_ID
$#     cid                                                                 title
         1contact
$#    ssid      msid     sstyp     mstyp    sboxid    mboxid       spr       mpr
         1         0         2         0         0         0         0         0
$#      fs        fd        dc        vc       vdc    penchk        bt        dt
     0.000     0.000     0.000     0.000     0.000         0     0.0001.0000E+20
$#     sfs       sfm       sst       mst      sfst      sfmt       fsf       vsf
  1.000000  1.000000     0.000     0.000  1.000000  1.000000  1.000000  1.000000
*SET_PART_LIST_TITLE
contact
$#     sid       da1       da2       da3       da4    solver
         1     0.000     0.000     0.000     0.000MECH
$#    pid1      pid2      pid3      pid4      pid5      pid6      pid7      pid8
         1         3         0         0         0         0         0         0
*PART
$# title
honey
$#     pid     secid       mid     eosid      hgid      grav    adpopt      tmid
         1         1         1         0         0         0         0         0
*SECTION_SHELL_TITLE
Al plate
$#   secid    elform      shrf       nip     propt   qr/irid     icomp     setyp
         1         2  1.000000         2         1         0         0         1
$#      t1        t2        t3        t4      nloc     marea      idof    edgset
 7.6000E-5 7.6000E-5 7.6000E-5 7.6000E-5     0.000     0.000     0.000         0
*MAT_PLASTIC_KINEMATIC_TITLE
Al 5052-0
$#     mid        ro         e        pr      sigy      etan      beta
         1 2680.00007.0300E+10  0.330000 8.9600E+7     0.000     0.000
$#     src       srp        fs        vp
     0.000     0.000     0.000     0.000
*PART
$# title
load
$#     pid     secid       mid     eosid      hgid      grav    adpopt      tmid
         3         2         3         0         0         0         0         0
*SECTION_SHELL_TITLE
rigid
$#   secid    elform      shrf       nip     propt   qr/irid     icomp     setyp
         2         2  1.000000         2         1         0         0         1
$#      t1        t2        t3        t4      nloc     marea      idof    edgset
  0.001000  0.001000  0.001000  0.001000     0.000     0.000     0.000         0
*MAT_RIGID_TITLE
rigid
$8725000 = 50kg
$#     mid        ro         e        pr         n    couple         m     alias
         3 8.7250E+61.0000E+12  0.100000     0.000     0.000     0.000          
$#     cmo      con1      con2
  1.000000         4         7
$# lco or a1      a2        a3        v1        v2        v3
     0.000     0.000     0.000     0.000     0.000     0.000
*MAT_ELASTIC_TITLE
load
$ro=174500kg/m3 for m=1kg when t=1mm
$ro=239.065e5kg/m3 for m=137kg when t=1mm
$#     mid        ro         e        pr        da        db  not used
         2 1.7450E+51.0000E+12  0.010000     0.000     0.000         0
*DEFINE_CURVE_TITLE
gravity
$#    lcid      sidr       sfa       sfo      offa      offo    dattyp
         1         0  1.000000  1.000000     0.000     0.000         0
$#                a1                  o1
               0.000           1.0000000
           1.0000000           1.0000000
*DEFINE_CURVE_TITLE
gravity_load
$#    lcid      sidr       sfa       sfo      offa      offo    dattyp
         2         0  1.000000  1.000000     0.000     0.000         0
$#                a1                  o1
               0.000         100.0000000
           0.0100000         500.0000000
           0.0200000         500.0000000
*SET_NODE_LIST_TITLE
plate
$#     sid       da1       da2       da3       da4    solver
         2     0.000     0.000     0.000     0.000MECH
$#    nid1      nid2      nid3      nid4      nid5      nid6      nid7      nid8
     17020     17021     17022     17023     17024     17025     17026     17027
     17028     17029     17030     17031     17032     17033     17034     17035
     17036     17037     17038     17039     17040     17041     17042     17043
     17044     17045     17046     17047     17048     17049     17050     17051
     17052     17053     17054     17055     17056     17057     17058     17059
     17060     17061     17062     17063     17064     17065     17066     17067
     17068     17069     17070     17071     17072     17073     17074     17075
     17076     17077     17078     17079     17080     17081     17082     17083
     17084     17085     17086     17087     17088     17089     17090     17091
     17092     17093     17094     17095     17096     17097     17098     17099
     17100     17101     17102     17103     17104     17105     17106     17107
     17108     17109     17110     17111     17112     17113     17114     17115
     17116     17117     17118     17119     17120     17121     17122     17123
     17124     17125     17126     17127     17128     17129     17130     17131
     17132     17133     17134     17135     17136     17137     17138     17139
     17140     17141     17142     17143     17144     17145     17146     17147
     17148     17149     17150     17151     17152     17153     17154     17155
     17156     17157     17158     17159     17160     17161     17162     17163
     17164     17165     17166     17167     17168     17169     17170     17171
     17172     17173     17174     17175     17176     17177     17178     17179
$ ... 170 like lines cut
*SET_NODE_LIST_TITLE
vel_impactor
$#     sid       da1       da2       da3       da4    solver
         4     0.000     0.000     0.000     0.000MECH
$#    nid1      nid2      nid3      nid4      nid5      nid6      nid7      nid8
     18083     17819         0         0         0         0         0         0
*SET_NODE_LIST_TITLE
marker_comb
$#     sid       da1       da2       da3       da4    solver
         5     0.000     0.000     0.000     0.000MECH
$#    nid1      nid2      nid3      nid4      nid5      nid6      nid7      nid8
     10095      8205      9275         0         0         0         0         0
*SET_NODE_LIST_TITLE
reactions
$#     sid       da1       da2       da3       da4    solver
         6     0.000     0.000     0.000     0.000MECH
$#    nid1      nid2      nid3      nid4      nid5      nid6      nid7      nid8
     11380      8350      9295      6335      6336      6337      6338      6339
      6340      6460      6461      6462      6463      6464      6565      6566
      6567      6568      6569      6670      6671      6672      6673      6674
      6775      6776      6777      6778      6779      6860      6861      6862
      6863      6965      6966      6967      6968      6969      6970      7090
      7091      7092      7093      7094      7196      7197      7198      7199
      7405      7406      7407      7408      7409      7490      7491      7492
      7493      7596      7597      7598      7599      7600      7825      7826
      7827      7828      7829      7930      7931      7932      7933      7934
      8035      8036      8037      8038      8039      8120      8121      8122
      8123      8225      8226      8227      8228      8229      8230      8351
      8352      8353      8354      8455      8456      8457      8458      8459
      8560      8561      8562      8563      8564      8665      8666      8667
      8668      8669      8750      8751      8752      8753      8856      8857
      8858      8859      8860      9296      9297      9298      9299      9380
      9381      9382      9383      9486      9487      9488      9489      9490
      9821      9822      9823      9824     10010     10011     10012     10013
     10115     10116     10117     10118     10119     10120     10241     10242
     10243     10244     10555     10556     10557     10558     10559     10640
     10641     10642     10643     10745     10746     10747     10748     10749
$ ... 20 like lines cut
*SET_NODE_LIST_TITLE
force
$#     sid       da1       da2       da3       da4    solver
         7     0.000     0.000     0.000     0.000MECH
$#    nid1      nid2      nid3      nid4      nid5      nid6      nid7      nid8
      6335      6336      6337      6338      6339      6340      6460      6461
      6462      6463      6464      6565      6566      6567      6568      6569
      6670      6671      6672      6673      6674      6775      6776      6777
      6778      6779      6860      6861      6862      6863      6965      6966
      6967      6968      6969      6970      7090      7091      7092      7093
      7094      7196      7197      7198      7199      7405      7406      7407
      7408      7409      7490      7491      7492      7493      7596      7597
      7598      7599      7600      7825      7826      7827      7828      7829
      7930      7931      7932      7933      7934      8035      8036      8037
      8038      8039      8120      8121      8122      8123      8225      8226
      8227      8228      8229      8230      8350      8351      8352      8353
      8354      8455      8456      8457      8458      8459      8560      8561
      8562      8563      8564      8665      8666      8667      8668      8669
      8750      8751      8752      8753      8856      8857      8858      8859
      8860      9295      9296      9297      9298      9299      9380      9381
      9382      9383      9486      9487      9488      9489      9490      9821
      9822      9823      9824     10010     10011     10012     10013     10115
     10116     10117     10118     10119     10120     10241     10242     10243
     10244     10555     10556     10557     10558     10559     10640     10641
     10642     10643     10745     10746     10747     10748     10749     10750
$ ... 20 like lines cut
*SET_PART_LIST_TITLE
plate
$#     sid       da1       da2       da3       da4    solver
         2     0.000     0.000     0.000     0.000MECH
$#    pid1      pid2      pid3      pid4      pid5      pid6      pid7      pid8
         3         0         0         0         0         0         0         0
*SET_PART_LIST_TITLE
comb
$#     sid       da1       da2       da3       da4    solver
         3     0.000     0.000     0.000     0.000MECH
$#    pid1      pid2      pid3      pid4      pid5      pid6      pid7      pid8
         1         0         0         0         0         0         0         0
*SET_SHELL_LIST_TITLE
comb
$#     sid       da1       da2       da3       da4
         1     0.000     0.000     0.000     0.000
$#    eid1      eid2      eid3      eid4      eid5      eid6      eid7      eid8
      5936      5937      5942      5943      5944      6036      6037      6042
      6043      6044      6136      6137      6142      6143      6144      6236
      6237      6242      6243      6244      6336      6337      6342      6343
      6344      6436      6437      6442      6443      6444      6536      6537
      6542      6543      6544      6636      6637      6642      6643      6644
      6736      6737      6742      6743      6744      6836      6837      6842
      6843      6844      6936      6937      6942      6943      6944      7036
      7037      7042      7043      7044      7136      7137      7142      7143
      7144      7236      7237      7242      7243      7244      7336      7337
      7342      7343      7344      7436      7437      7442      7443      7444
      7536      7537      7542      7543      7544      7636      7637      7642
      7643      7644      7736      7737      7742      7743      7744      7836
      7837      7842      7843      7844      7936      7937      7942      7943
      7944      8036      8037      8042      8043      8044      8136      8137
      8142      8143      8144      8236      8237      8242      8243      8244
      8336      8337      8342      8343      8344      8436      8437      8442
      8443      8444      8536      8537      8542      8543      8544      8636
      8637      8642      8643      8644      8736      8737      8742      8743
      8744      8836      8837      8842      8843      8844      8936      8937
      8942      8943      8944      9036      9037      9042      9043      9044
$ ... 44 like lines cut
*ELEMENT_SHELL
$#   eid     pid      n1      n2      n3      n4      n5      n6      n7      n8
    5851       1    6372    6373    6368    6369       0       0       0       0
    5852       1    6373    6316    6317    6368       0       0       0       0
    5853       1    6313    6314    6373    6372       0       0       0       0
    5854       1    6314    6315    6316    6373       0       0       0       0
    5855       1    6369    6370    6374    6372       0       0       0       0
    5856       1    6372    6374    6312    6313       0       0       0       0
    5857       1    6359    6375    6371    6358       0       0       0       0
    5858       1    6375    6374    6370    6371       0       0       0       0
    5859       1    6310    6311    6375    6359       0       0       0       0
    5860       1    6311    6312    6374    6375       0       0       0       0
    5861       1    6376    6378    6364    6365       0       0       0       0
    5862       1    6378    6319    6320    6364       0       0       0       0
    5863       1    6377    6379    6378    6376       0       0       0       0
    5864       1    6379    6318    6319    6378       0       0       0       0
    5865       1    6369    6368    6379    6377       0       0       0       0
    5866       1    6368    6317    6318    6379       0       0       0       0
    5867       1    6356    6380    6367    6355       0       0       0       0
    5868       1    6380    6381    6366    6367       0       0       0       0
    5869       1    6381    6376    6365    6366       0       0       0       0
    5870       1    6358    6371    6382    6357       0       0       0       0
$ ... 11623 like lines cut
*NODE
$#   nid               x               y               z      tc      rc
       1    2567.2629395    1255.8391113       0.0400000       0       0
       2    2567.2661133    1255.8391113       0.0400000       0       0
       3    2567.2692871    1255.8391113       0.0400000       0       0
       4    2567.2724609    1255.8391113       0.0400000       0       0
      17    2567.2724609    1255.8391113 -6.8304724e-018       0       0
      18    2567.2692871    1255.8391113  1.0842022e-019       0       0
      19    2567.2661133    1255.8391113  1.0842022e-019       0       0
      20    2567.2629395    1255.8391113 -6.8304737e-018       0       0
      57    2567.2739258    1255.8363037       0.0400000       0       0
      58    2567.2756348    1255.8334961       0.0400000       0       0
      59    2567.2770996    1255.8308105       0.0400000       0       0
      72    2567.2770996    1255.8308105 -6.8304741e-018       0       0
      73    2567.2756348    1255.8334961 -6.8304733e-018       0       0
      74    2567.2739258    1255.8363037 -6.8304729e-018       0       0
      99    2567.2756348    1255.8280029       0.0400000       0       0
     100    2567.2739258    1255.8253174       0.0400000       0       0
     101    2567.2724609    1255.8225098       0.0400000       0       0
     114    2567.2724609    1255.8225098  1.0842022e-019       0       0
     115    2567.2739258    1255.8253174 -6.8304737e-018       0       0
     116    2567.2756348    1255.8280029 -6.8304737e-018       0       0
$ ... 14133 like lines cut
*DATABASE_NODFOR
$#      dt    binary      lcur     ioopt
 1.0000E-5         1         0         1
*DATABASE_NODOUT
$#      dt    binary      lcur     ioopt      dthf     binhf
 1.0000E-5         1         0         1     0.000         0
*DATABASE_BINARY_D3PLOT
$#      dt      lcdt      beam     npltc    psetid
  0.001000         0         0         0         0
$#   ioopt
         0
*DATABASE_CROSS_SECTION_SET_ID
$#    csid                                                                 title
         1                                                                      
$#    nsid      hsid      bsid      ssid      tsid      dsid        id     itype
         7         0         0         1         0         0         0         0
*DATABASE_NODAL_FORCE_GROUP
$#    nsid       cid
         6         0
*DATABASE_NODAL_FORCE_GROUP
$#    nsid       cid
         7         0
*DATABASE_NODAL_FORCE_GROUP
$#    nsid       cid
         5         0
*DATABASE_HISTORY_NODE_SET
$#     id1       id2       id3       id4       id5       id6       id7       id8
         4         5         6         0         0         0         0         0
*DATABASE_HISTORY_SHELL_SET
$#     id1       id2       id3       id4       id5       id6       id7       id8
         1         0         0         0         0         0         0         0
*INITIAL_VELOCITY_GENERATION
$#nsid/pid      styp     omega        vx        vy        vz     ivatn      icid
         2         1     0.000     0.000     0.000 -1.410000         0         0
$#      xc        yc        zc        nx        ny        nz     phase    iridid
     0.000     0.000     0.000     0.000     0.000     0.000         0         0
*END
