      Date: 02/08/2014      Time: 15:24:20  

     ___________________________________________________
     |                                                 |
     |  Livermore  Software  Technology  Corporation   |
     |                                                 |
     |  7374 Las Positas Road                          |
     |  Livermore, CA 94551                            |
     |  Tel: (925) 449-2500  Fax: (925) 449-2507       |
     |  www.lstc.com                                   |
     |_________________________________________________|
     |                                                 |
     |  LS-DYNA, A Program for Nonlinear Dynamic       |
     |  Analysis of Structures in Three Dimensions     |
     |  Version : ls971d R6.1.0   Date: 06/26/2012     |
     |  Revision: 74879           Time: 10:21:33       |
     |                                                 |
     |  Features enabled in this version:              |
     |    Shared Memory Parallel                       |
     |    Interactive Graphics                         |
     |    ANSYS Database format                        |
     |    ANSYS License (ANSYS145)                     |
     |    32 Bit IEEE Binary File                      |
     |                                                 |
     |  Licensed to: Warsaw University of Technology - |
     |  Issued by  : LSTC_10312013                     |
     |                                                 |
     |  Platform   : WINDOWS X64                       |
     |  OS Level   : Windows XP/Vista/7 SRV 2003/2008  |
     |  Compiler   : Intel Fortran 10.1 & MSVC++ 2008  |
     |  Hostname   : NASA                              |
     |  Precision  : Double precision (I8R8)           |
     |  SVN Version: 75240                             |
     |                                                 |
     |  Unauthorized use infringes LSTC copyrights     |
     |_________________________________________________|

 Input file: E:\Private\Desktop\honey_AL\K1-KOC~2\1.k                                


 The native file format       : 64-bit small endian
 Memory size from default     :    20000000
 expanding   memory to    20000000 starting ls-dyna

 ********  notice  ********  notice  ********  notice  ********
 *                                                            *
 * This is the LS-DYNA Finite Element code.                   *
 *                                                            *
 * Neither LSTC nor the authors assume any responsibility for *
 * the validity, accuracy, or applicability of any results    *
 * obtained from this system. The user must verify his own    *
 * results.                                                   *
 *                                                            *
 * LSTC endeavors to make the LS-DYNA code as complete,       *
 * accurate and easy to use as possible.                      *
 * Suggestions and comments are welcomed.  Please report any  *
 * errors encountered in either the documentation or results  *
 * immediately to LSTC through your site focus.               *
 *                                                            *
 * Copyright (C) 1990-2012                                    *
 * by Livermore Software Technology Corp. (LSTC)              *
 * All rights reserved                                        *
 *                                                            *
 ********  notice  ********  notice  ********  notice  ********

 Beginning of keyword reader                                   02/08/14 15:24:20
 contracting memory to           1 beginning of keyword reader
 expanding   memory to       22080  
 expanding   memory to      118758  
 expanding   memory to      163758  
 expanding   memory to      193758  
 expanding   memory to      393474  
 expanding   memory to      413555  
 expanding   memory to      438611  
 expanding   memory to      489183  
 expanding   memory to      539755  
 expanding   memory to      560969  
 expanding   memory to      587249  
 expanding   memory to      612871  
 expanding   memory to      646226  
 expanding   memory to      816062  
 expanding   memory to      839348  
 expanding   memory to      888430  
 expanding   memory to      913689  

 Memory required to process keyword     :       913689
 contracting memory to           1 end of keyword reader

 LS-DYNA will perform a structural only analysis 

 CAAofS - Semestral Project - D.Bro¿yna                                  
                         ls-dyna ls971d.74879 R6.1.0    date 06/26/2012
 expanding   memory to        2627 material, node and element data
 expanding   memory to        2726 material added airbag porosity leakage 
 contracting memory to        2726 material properties
 expanding   memory to       88402 element data for composite material
 expanding   memory to      132761 gradient of damage data
 expanding   memory to      388985 user control for contact interfaces
 contracting memory to      388965 for boundary cond. vectorization
 expanding   memory to      400608 arbitrary element numbering input
 contracting memory to      388965 thick shell int. pt. strain
 expanding   memory to      405314 spc cards
 expanding   memory to      747949 process element material data
 expanding   memory to      747984 cross-sectional force definitions 1
 expanding   memory to      752869 cross-sectional force definitions 2
 contracting memory to      751709 user_define_loading_set
 expanding   memory to      751915 regularize time history data
 contracting memory to      751709 rigidwall definitions
 expanding   memory to      822522 nodal groups for resultant forces
 contracting memory to      778530 nodal group data
 expanding   memory to      792684 nodal constraint sets
 expanding   memory to      793142 contact interfaces
 expanding   memory to      822448 implicit contact 1
 expanding   memory to      822450 implicit contact 2
 expanding   memory to      922335 contact segment data 1
 contracting memory to      909291 contact segment data 2
 expanding   memory to      994795 contact segment data 3
 expanding   memory to     1053404 contact definition
 expanding   memory to     1110227 rigid body
 expanding   memory to     1278603 contact friction
 expanding   memory to     1351659 joints
 contracting memory to     1351659 accelerometers
 expanding   memory to     1351759 rigid bodies for disp. termination
 contracting memory to     1351759 transformation to move nodes
 expanding   memory to     1380065 interfac for file
 contracting memory to     1365914 thermal expansion 0
 expanding   memory to     1365916 flexible body 2
 contracting memory to     1365916 implicit joints
 expanding   memory to     1365917 minimum contact gap for auto switching
 expanding   memory to     1412489 initialization phase
 
 *** Warning 30128 (INI+128)
     Massless nodes
     The following massless nodes were found
           1           2           3           4          17          18
          19          20          57          58          59          72
          73          74          99         100         101         114
         115         116         141         142         143         156
         157         158         183         184         185         198
         199         200         225         226         227         228
         253         254         255         256         269         270
         271         272         309         310         311         324
         325         326         351         352         367         368
         435         436         437         450         451         452
         477         478         479         480         505         506
         507         522         523         524         603         604
         605         618         619         620         645         646
         647         660         661         662         687         688
         689         702         703         704         729         730
         731         732         757         758         759         760
         773         774         775         776         813         814
         815         828         829         830         855         856
         857         870         871         872         897         898
         899         912         913         914         939         940
         941         954         955         956         981         982
         983         984        1009        1010        1011        1026
        1027        1028        1157        1158        1159        1160
        1161        1162        1163        1164        1165        1166
        1167        1168        1169        1170        1191        1192
        1193        1206        1207        1208        1233        1234
        1235        1236        1261        1262        1263        1264
        1265        1266        1267        1268        1269        1270
        1271        1272        1273        1274        1275        1276
        1277        1278        1279        1280        1317        1318
        1319        1320        1321        1322        1323        1324
        1325        1326        1327        1328        1329        1330
        1331        1332        1333        1334        1401        1402
        1408        1409        1410        1411        1412        1413
        1414        1415        1416        1417        1418        1443
        1444        1445        1485        1486        1487        1488
        1513        1514        1515        1516        1529        1530
        1531        1532        1569        1570        1571        1572
        1573        1574        1575        1576        1577        1578
        1579        1580        1581        1582        1583        1584
        1585        1586        1611        1612        1613        1614
        1615        1616        1617        1618        1619        1620
        1621        1622        1695        1696        1697        1710
        1711        1712        1737        1738        1739        1740
        1765        1766        1767        1768        1781        1782
        1783        1784        1821        1822        1837        1838
        1947        1948        1949        1962        1963        1964
        1989        1990        1991        1992        2017        2018
        2019        2034        2035        2036        2241        2242
        2243        2244        2269        2270        2271        2272
        2285        2286        2287        2288        2325        2326
        2332        2333        2334        2335        2336        2337
        2338        2339        2340        2341        2342        2367
        2368        2369        2409        2410        2411        2412
        2413        2414        2415        2416        2417        2418
        2419        2420        2421        2422        2423        2424
        2425        2426        2427        2428        2429        2430
        2431        2432        2433        2434        2435        2436
        2437        2438        2439        2440        2441        2442
        2443        2444        2445        2446        2447        2448
        2449        2450        2451        2452        2453        2466
        2467        2468        2493        2494        2495        2496
        2521        2522        2523        2524        2525        2526
        2527        2528        2529        2530        2531        2532
        2533        2534        2535        2536        2537        2538
        2539        2540        2577        2578        2579        2580
        2581        2582        2583        2584        2585        2586
        2587        2588        2589        2590        2591        2592
        2593        2594        2595        2596        2597        2598
        2599        2600        2601        2602        2603        2604
        2605        2606        2607        2608        2609        2610
        2611        2612        2613        2614        2615        2616
        2617        2618        2619        2620        2621        2622
        2623        2624        2625        2626        2627        2628
        2629        2630        2661        2662        2663        2676
        2677        2678        2703        2704        2705        2718
        2719        2720        2745        2746        2747        2748
        2773        2774        2775        2776        2789        2790
        2791        2792        2829        2830        2831        2844
        2845        2846        2871        2872        2884        2885
        2886        2887        2888        2913        2914        2915
        2916        2917        2918        2919        2920        2921
        2955        2956        2957        2970        2971        2972
        2997        2998        2999        3000        3025        3026
        3027        3028        3029        3030        3031        3032
        3033        3034        3035        3036        3037        3038
        3039        3040        3041        3042        3043        3044
        3081        3082        3083        3084        3085        3086
        3087        3088        3089        3090        3091        3092
        3093        3094        3095        3096        3097        3098
        3099        3100        3101        3102        3103        3104
        3105        3106        3107        3108        3109        3110
        3111        3112        3113        3114        3115        3116
        3117        3118        3119        3120        3121        3122
        3123        3124        3125        3126        3127        3128
        3129        3130        3131        3132        3133        3134
        3135        3136        3137        3138        3139        3140
        3143        3144        3145        3146        3147        3148
        3149        3150        3151        3152        3153        3154
        3155        3156        3183        3184        3185        3186
        3187        3188        3189        3190        3191        3192
        3193        3194        3195        3196        3197        3198
        3199        3200        3201        3202        3203        3204
        3205        3206        3207        3208        3209        3210
        3211        3212        3213        3214        3215        3216
        3217        3218        3219        3220        3221        3222
        3223        3224        3249        3250        3251        3252
        3278        3279        3280        3293        3294        3295
        3333        3334        3335        3348        3349        3350
        3375        3376        3391        3392        3431        3432
        3433        3434        3435        3436        3437        3438
        3439        3440        3441        3442        3443        3444
        3471        3472        3473        3474        3475        3476
        3477        3478        3479        3480        3481        3482
        3483        3484        3485        3486        3487        3488
        3489        3490        3491        3492        3493        3494
        3495        3496        3497        3498        3499        3500
        3501        3502        3503        3504        3505        3506
        3507        3508        3509        3510        3511        3512
        3513        3514        3515        3516        3517        3518
        3519        3520        3521        3522        3523        3524
        3525        3526        3527        3528        3529        3530
        3531        3532        3545        3546        3547        3548
        3585        3586        3587        3588        3589        3590
        3591        3592        3593        3594        3595        3596
        3597        3598        3599        3600        3601        3602
        3711        3712        3713        3726        3727        3728
        3753        3754        3755        3756        3781        3782
        3783        3798        3799        3800        3851        3852
        3853        3854        3855        3856        3857        3858
        3859        3860        3861        3862        3863        3864
        3891        3892        3893        3894        3895        3896
        3897        3898        3899        3900        3901        3902
        3903        3904        3905        3906        3907        3908
        3909        3910        3911        3912        3913        3914
        3915        3916        3917        3918        3919        3920
        3921        3922        3923        3924        3925        3926
        3927        3928        3929        3930        3931        3932
        3933        3934        3935        3936        3937        3938
        3939        3940        3941        3942        3943        3944
        3945        3946        3947        3948        3949        3950
        3951        3952        3953        3954        3955        3956
        3957        3958        3959        3960        3961        3962
        3963        3964        3965        3978        3979        3980
        4005        4006        4007        4008        4033        4034
        4108        4109        4110        4111        4112        4113
        4114        4115        4116        4117        4118        4119
        4120        4121        4161        4162        4163        4164
        4165        4166        4167        4168        4169        4170
        4171        4172        4173        4174        4175        4188
        4189        4190        4215        4216        4217        4230
        4231        4232        4257        4258        4259        4260
        4960        4961        4962        4963        4964        4965
        4966        4967        4968        4969        4970        4971
        4972        4973        4974        4975        4976        4977
        4978        4979        4980        4981        4982        4983
        4984        4985        4986        4987        4988        4989
        4990        4991        4992        4993        4994        4995
        4996        4997        4998        4999        5000        5001
        5002        5003        5004        5005        5006        5007
        5008        5009        5010        5011        5012        5013
        5014        5015        5016        5017        5018        5019
        5020        5021        5022        5023        5024        5025
        5026        5027        5028        5029        5030        5031
        5032        5033        5034        5035        5036        5037
        5038        5039        5040        5041        5042        5043
        5044        5045        5046        5047        5048        5049
        5050        5051        5052        5053        5054        5055
        5056        5057        5058        5059        5060        5061
        5062        5063        5064        5065        5066        5067
        5068        5069        5070        5071        5072        5073
        5074        5075        5076        5077        5078        5079
        5080        5081        5082        5083        5084        5085
        5086        5087        5088        5089        5090        5091
        5092        5093        5094        5095        5096        5097
        5098        5099        5186        5187        5188        5189
        5190        5191        5192        5193        5194        5195
        5196        5197        5198        5199        5226        5227
        5228        5229        5230        5231        5232        5233
        5234        5235        5236        5237        5238        5239
        5240        5241        5242        5243        5244        5245
        5246        5247        5248        5249        5250        5251
        5252        5253        5254        5255        5256        5257
        5258        5259        5260        5261        5262        5263
        5264        5265        5266        5267        5268        5269
        5270        5271        5272        5273        5274        5275
        5276        5277        5278        5279        5280        5281
        5282        5283        5284        5285        5286        5287
        5288        5289        5290        5291        5292        5293
        5294        5295        5296        5297        5298        5299
        5300        5301        5302        5303        5304        5305
        5306        5307        5308        5309        5383        5384
        5385        5386        5387        5388        5389        5390
        5391        5392        5393        5394        5395        5396
        5436        5437        5438        5439        5440        5441
        5442        5443        5444        5445        5446        5447
        5448        5449        5450        5451        5452        5453
        5454        5455        5456        5457        5458        5459
        5460        5461        5462        5463        5464        5465
        5466        5467        5468        5469        5470        5471
        5472        5473        5474        5475        5476        5477
        5478        5479        5480        5481        5482        5483
        5484        5485        5486        5487        5488        5489
        5490        5491        5492        5493        5494        5495
        5496        5497        5498        5499        5500        5501
        5502        5503        5504        5505        5506        5507
        5508        5509        5510        5511        5512        5513
        5514        5515        5516        5517        5518        5519
        5635        5636        5637        5638        5639        5640
        5641        5642        5643        5644        5645        5646
        5647        5648        5649        5650        5651        5652
        5653        5654        5655        5656        5657        5658
        5659        5660        5661        5662        5663        5664
        5665        5666        5667        5668        5669        5670
        5671        5672        5673        5674        5675        5676
        5677        5678        5679        5680        5681        5682
        5683        5684        5685        5686        5687        5688
        5689        5690        5691        5692        5693        5694
        5695        5696        5697        5698        5699        5700
        5701        5702        5703        5704        5705        5706
        5707        5708        5709        5710        5711        5712
        5713        5714        5715        5716        5717        5718
        5719        5720        5721        5722        5723        5724
        5725        5726        5727        5728        5729        5730
        5731        5732        5733        5734        5735        5736
        5737        5738        5739        5740        5741        5742
        5743        5744        5745        5746        5747        5748
        5749        5750        5751        5752        5753        5754
        5755        5756        5757        5758        5759        5760
        5761        5762        5763        5764        5765        5766
        5767        5768        5769        5770        5771        5772
        5773        5774        5775        5776        5777        5778
        5779        5780        5781        5782        5783        5784
        5785        5786        5787        5788        5789        5790
        5791        5792        5793        5794        5795        5796
        5797        5798        5799        5800        5801        5802
        5803        5804        5805        5806        5807        5808
        5809        5810        5811        5812        5813        5814
        5815        5816        5817        5818        5819        5820
        5821        5822        5823        5824        5825        5826
        5827        5828        5829        5830        5831        5832
        5833        5834        5835        5836        5837        5838
        5839        5840        5841        5842        5843        5844
        5845        5846        5847        5848        5849        5850
        5851        5852        5853        5854        5855        5856
        5857        5858        5859        5860        5861        5862
        5863        5864        5865        5866        5867        5868
        5869        5870        5871        5872        5873        5874
        5875        5876        5877        5878        5879        5880
        5881        5882        5883        5884        5885        5886
        5887        5888        5889        5890        5891        5892
        5893        5894        5895        5896        5897        5898
        5899        5900        5901        5902        5903        5904
        5905        5906        5907        5908        5909        5910
        5911        5912        5913        5914        5915        5916
        5917        5918        5919        5920        5921        5922
        5923        5924        5925        5926        5927        5928
        5929        5930        5931        5932        5933        5934
        5935        5936        5937        5938        5939        5940
        5941        5942        5943        5944        5945        5946
        5947        5948        5949        5950        5951        5952
        5953        5954        5955        5956        5957        5958
        5959        5960        5961        5962        5963        5964
        5965        5966        5967        5968        5969        5970
        5971        5972        5973        5974        5975        5976
        5977        5978        5979        5980        5981        5982
        5983        5984        5985        5986        5987        5988
        5989        5990        5991        5992        5993        5994
        5995        5996        5997        5998        5999        6000
        6001        6002        6003        6004        6005        6006
        6007        6008        6009        6010        6011        6012
        6013        6014        6015        6016        6017        6018
        6019        6020        6021        6022        6023        6024
        6025        6026        6027        6028        6029        6030
        6031        6032        6033        6034        6035        6036
        6037        6038        6039        6040        6041        6042
        6043        6044        6045        6046        6047        6048
        6049        6050        6051        6052        6053        6054
        6055        6056        6057        6058        6059        6060
        6061        6062        6063        6064        6065        6066
        6067        6068        6069        6070        6071        6072
        6073        6074        6075        6076        6077        6078
        6079        6080        6081        6082        6083        6084
        6085        6086        6087        6088        6089        6090
        6091        6092        6093        6094        6095        6096
        6097        6098        6099        6100        6101        6102
        6103        6104        6105        6106        6107        6108
        6109        6110        6111        6112        6113        6114
        6115        6116        6117        6118        6119        6120
        6121        6122        6123        6124        6125        6126
        6127        6128        6129        6130        6131        6132
        6133        6134        6135        6136        6137        6138
        6139        6140        6141        6142        6143        6144
        6145        6146        6147        6148        6149        6150
        6151        6152        6153        6154        6155        6156
        6157        6158        6159        6160        6161        6162
        6163        6164        6165        6166        6167        6168
        6169        6170        6171        6172        6173        6174
        6175        6176        6177        6178        6179        6180
        6181        6182        6183        6184        6185        6186
        6187        6188        6189        6190        6191        6192
        6193        6194        6195        6196        6197        6198
        6199        6200        6201        6202        6203        6204
        6205        6206        6207        6208        6209        6210
        6211        6212        6213        6214        6215        6216
        6217        6218        6219        6220        6221        6222
        6223        6224        6225        6226        6227        6228
        6229        6230        6231        6232        6233        6234
        6235        6236        6237        6238        6239        6240
        6241        6242        6243        6244        6245        6246
        6247        6248        6249        6250        6251        6252
        6253        6254        6255        6256        6257        6258
        6259        6260        6261        6262        6263        6264
        6265        6266        6267        6268        6269        6270
        6271        6272        6273        6274        6275        6276
        6277        6278        6279        6280        6281        6282
        6283        6284        6285        6286        6287        6288
        6289        6290        6291        6292        6293        6294
        6295        6296        6297        6298        6299        6300
        6301        6302        6303        6304        6305        6306
        6307        6308        6309        7175        7176        7177
        7178        7179        7180        7181        7182        7183
        7184        7185        7186        7187        7188        7189
        7190        7191        7192        7193        7194        7195
        7276        7277        7278        7279        7280        7281
        7282        7283        7284        7285        7286        7287
        7288        7289        7290        7291        7292        7293
        7294        7295        7296        7297        7298        7299
        7300        7301        7302        7303        7304        7305
        7306        7307        7308        7309        7310        7311
        7312        7313        7314        7315        7316        7317
        7318        7319        7320        7321        7322        7323
        7324        7325        7326        7327        7328        7329
        7330        7331        7332        7333        7334        7335
        7336        7337        7338        7339        7340        7341
        7342        7343        7344        7345        7346        7347
        7348        7349        7350        7351        7352        7353
        7354        7355        7356        7357        7358        7359
        7360        7361        7362        7363        7364        7365
        7366        7367        7368        7369        7370        7371
        7372        7373        7374        7375        7376        7377
        7378        7379        7380        7575        7576        7577
        7578        7579        7580        7581        7582        7583
        7584        7585        7586        7587        7588        7589
        7590        7591        7592        7593        7594        7595
        7696        7697        7698        7699        7700        7701
        7702        7703        7704        7705        7706        7707
        7708        7709        7710        7711        7712        7713
        7714        7715        7716        7717        7718        7719
        7720        7721        7722        7723        7724        7725
        7726        7727        7728        7729        7730        7731
        7732        7733        7734        7735        7736        7737
        7738        7739        7740        7741        7742        7743
        7744        7745        7746        7747        7748        7749
        7750        7751        7752        7753        7754        7755
        7756        7757        7758        7759        7760        7761
        7762        7763        7764        7765        7766        7767
        7768        7769        7770        7771        7772        7773
        7774        7775        7776        7777        7778        7779
        7780        7781        7782        7783        7784        7785
        7786        7787        7788        7789        7790        7791
        7792        7793        7794        7795        7796        7797
        7798        7799        7800        8835        8836        8837
        8838        8839        8840        8841        8842        8843
        8844        8845        8846        8847        8848        8849
        8850        8851        8852        8853        8854        8855
        8956        8957        8958        8959        8960        8961
        8962        8963        8964        8965        8966        8967
        8968        8969        8970        8971        8972        8973
        8974        8975        8976        8977        8978        8979
        8980        8981        8982        8983        8984        8985
        8986        8987        8988        8989        8990        8991
        8992        8993        8994        8995        8996        8997
        8998        8999        9000        9001        9002        9003
        9004        9005        9006        9007        9008        9009
        9010        9011        9012        9013        9014        9015
        9016        9017        9018        9019        9020        9021
        9022        9023        9024        9025        9026        9027
        9028        9029        9030        9031        9032        9033
        9034        9035        9036        9037        9038        9039
        9040        9041        9042        9043        9044        9045
        9046        9047        9048        9049        9050        9051
        9052        9053        9054        9055        9056        9057
        9058        9059        9060        9061        9062        9063
        9064        9065        9066        9067        9068        9069
        9070        9071        9072        9073        9074        9075
        9076        9077        9078        9079        9080        9081
        9082        9083        9084        9085        9086        9087
        9088        9089        9090        9091        9092        9093
        9094        9095        9096        9097        9098        9099
        9100        9101        9102        9103        9104        9105
        9106        9107        9108        9109        9110        9111
        9112        9113        9114        9115        9116        9117
        9118        9119        9120        9121        9122        9123
        9124        9125        9126        9127        9128        9129
        9130        9131        9132        9133        9134        9135
        9136        9137        9138        9139        9140        9141
        9142        9143        9144        9145        9146        9147
        9148        9149        9150        9151        9152        9153
        9154        9155        9156        9157        9158        9159
        9160        9161        9162        9163        9164        9165
        9166        9167        9168        9169        9170        9171
        9172        9173        9174        9175        9176        9177
        9178        9179        9180        9181        9182        9183
        9184        9185        9186        9187        9188        9189
        9190        9191        9192        9193        9194        9195
        9196        9197        9198        9199        9200        9201
        9202        9203        9204        9205        9206        9207
        9208        9209        9210        9211        9212        9213
        9214        9215        9216        9217        9218        9219
        9220        9221        9222        9223        9224        9225
        9226        9227        9228        9229        9230        9231
        9232        9233        9234        9235        9236        9237
        9238        9239        9240        9241        9242        9243
        9244        9245        9246        9247        9248        9249
        9250        9251        9252        9253        9254        9255
        9256        9257        9258        9259        9260        9261
        9262        9263        9264        9265        9266        9267
        9268        9269        9270        9465        9466        9467
        9468        9469        9470        9471        9472        9473
        9474        9475        9476        9477        9478        9479
        9480        9481        9482        9483        9484        9485
        9586        9587        9588        9589        9590        9591
        9592        9593        9594        9595        9596        9597
        9598        9599        9600        9601        9602        9603
        9604        9605        9606        9607        9608        9609
        9610        9611        9612        9613        9614        9615
        9616        9617        9618        9619        9620        9621
        9622        9623        9624        9625        9626        9627
        9628        9629        9630        9631        9632        9633
        9634        9635        9636        9637        9638        9639
        9640        9641        9642        9643        9644        9645
        9646        9647        9648        9649        9650        9651
        9652        9653        9654        9655        9656        9657
        9658        9659        9660        9661        9662        9663
        9664        9665        9666        9667        9668        9669
        9670        9671        9672        9673        9674        9675
        9676        9677        9678        9679        9680        9681
        9682        9683        9684        9685        9686        9687
        9688        9689        9690        9691        9692        9693
        9694        9695        9696        9697        9698        9699
        9700        9701        9702        9703        9704        9705
        9706        9707        9708        9709        9710        9711
        9712        9713        9714        9715        9716        9717
        9718        9719        9720        9721        9722        9723
        9724        9725        9726        9727        9728        9729
        9730        9731        9732        9733        9734        9735
        9736        9737        9738        9739        9740        9741
        9742        9743        9744        9745        9746        9747
        9748        9749        9750        9751        9752        9753
        9754        9755        9756        9757        9758        9759
        9760        9761        9762        9763        9764        9765
        9766        9767        9768        9769        9770        9771
        9772        9773        9774        9775        9776        9777
        9778        9779        9780        9781        9782        9783
        9784        9785        9786        9787        9788        9789
        9790        9791        9792        9793        9794        9795
        9800        9801        9802        9803        9804        9805
        9806        9807        9808        9809        9810        9811
        9812        9813        9814        9815        9816        9817
        9818        9819        9820        9901        9902        9903
        9904        9905        9906        9907        9908        9909
        9910        9911        9912        9913        9914        9915
        9916        9917        9918        9919        9920        9921
        9922        9923        9924        9925        9926        9927
        9928        9929        9930        9931        9932        9933
        9934        9935        9936        9937        9938        9939
        9940        9941        9942        9943        9944        9945
        9946        9947        9948        9949        9950        9951
        9952        9953        9954        9955        9956        9957
        9958        9959        9960        9961        9962        9963
        9964        9965        9966        9967        9968        9969
        9970        9971        9972        9973        9974        9975
        9976        9977        9978        9979        9980        9981
        9982        9983        9984        9985        9986        9987
        9988        9989        9990        9991        9992        9993
        9994        9995        9996        9997        9998        9999
       10000       10001       10002       10003       10004       10005
       10220       10221       10222       10223       10224       10225
       10226       10227       10228       10229       10230       10231
       10232       10233       10234       10235       10236       10237
       10238       10239       10240       10321       10322       10323
       10324       10325       10326       10327       10328       10329
       10330       10331       10332       10333       10334       10335
       10336       10337       10338       10339       10340       10341
       10342       10343       10344       10345       10346       10347
       10348       10349       10350       10351       10352       10353
       10354       10355       10356       10357       10358       10359
       10360       10361       10362       10363       10364       10365
       10366       10367       10368       10369       10370       10371
       10372       10373       10374       10375       10376       10377
       10378       10379       10380       10381       10382       10383
       10384       10385       10386       10387       10388       10389
       10390       10391       10392       10393       10394       10395
       10396       10397       10398       10399       10400       10401
       10402       10403       10404       10405       10406       10407
       10408       10409       10410       10411       10412       10413
       10414       10415       10416       10417       10418       10419
       10420       10421       10422       10423       10424       10425
       10426       10427       10428       10429       10430       10431
       10432       10433       10434       10435       10436       10437
       10438       10439       10440       10441       10442       10443
       10444       10445       10446       10447       10448       10449
       10450       10451       10452       10453       10454       10455
       10456       10457       10458       10459       10460       10461
       10462       10463       10464       10465       10466       10467
       10468       10469       10470       10471       10472       10473
       10474       10475       10476       10477       10478       10479
       10480       10481       10482       10483       10484       10485
       10486       10487       10488       10489       10490       10491
       10492       10493       10494       10495       10496       10497
       10498       10499       10500       10501       10502       10503
       10504       10505       10506       10507       10508       10509
       10510       10511       10512       10513       10514       10515
       10516       10517       10518       10519       10520       10521
       10522       10523       10524       10525       10526       10527
       10528       10529       10530       10850       10851       10852
       10853       10854       10855       10856       10857       10858
       10859       10860       10861       10862       10863       10864
       10865       10866       10867       10868       10869       10870
       10951       10952       10953       10954       10955       10956
       10957       10958       10959       10960       10961       10962
       10963       10964       10965       10966       10967       10968
       10969       10970       10971       10972       10973       10974
       10975       10976       10977       10978       10979       10980
       10981       10982       10983       10984       10985       10986
       10987       10988       10989       10990       10991       10992
       10993       10994       10995       10996       10997       10998
       10999       11000       11001       11002       11003       11004
       11005       11006       11007       11008       11009       11010
       11011       11012       11013       11014       11015       11016
       11017       11018       11019       11020       11021       11022
       11023       11024       11025       11026       11027       11028
       11029       11030       11031       11032       11033       11034
       11035       11036       11037       11038       11039       11040
       11041       11042       11043       11044       11045       11046
       11047       11048       11049       11050       11051       11052
       11053       11054       11055       11056       11057       11058
       11059       11060       11061       11062       11063       11064
       11065       11066       11067       11068       11069       11070
       11071       11072       11073       11074       11075       11076
       11077       11078       11079       11080       11081       11082
       11083       11084       11085       11086       11087       11088
       11089       11090       11091       11092       11093       11094
       11095       11096       11097       11098       11099       11100
       11101       11102       11103       11104       11105       11106
       11107       11108       11109       11110       11111       11112
       11113       11114       11115       11116       11117       11118
       11119       11120       11121       11122       11123       11124
       11125       11126       11127       11128       11129       11130
       11131       11132       11133       11134       11135       11136
       11137       11138       11139       11140       11141       11142
       11143       11144       11145       11146       11147       11148
       11149       11150       11151       11152       11153       11154
       11155       11156       11157       11158       11159       11160
       11355       11356       11357       11358       11359       11360
       11361       11362       11363       11364       11365       11366
       11367       11368       11369       11370       11371       11372
       11373       11374       11375       11476       11477       11478
       11479       11480       11481       11482       11483       11484
       11485       11486       11487       11488       11489       11490
       11491       11492       11493       11494       11495       11496
       11497       11498       11499       11500       11501       11502
       11503       11504       11505       11506       11507       11508
       11509       11510       11511       11512       11513       11514
       11515       11516       11517       11518       11519       11520
       11521       11522       11523       11524       11525       11526
       11527       11528       11529       11530       11531       11532
       11533       11534       11535       11536       11537       11538
       11539       11540       11541       11542       11543       11544
       11545       11546       11547       11548       11549       11550
       11551       11552       11553       11554       11555       11556
       11557       11558       11559       11560       11561       11562
       11563       11564       11565       11566       11567       11568
       11569       11570       11571       11572       11573       11574
       11575       11576       11577       11578       11579       11580
       11581       11582       11583       11584       11585       11586
       11587       11588       11589       11590       11591       11592
       11593       11594       11595       11596       11597       11598
       11599       11600       11601       11602       11603       11604
       11605       11606       11607       11608       11609       11610
       11611       11612       11613       11614       11615       11616
       11617       11618       11619       11620       11621       11622
       11623       11624       11625       11626       11627       11628
       11629       11630       11631       11632       11633       11634
       11635       11636       11637       11638       11639       11640
       11641       11642       11643       11644       11645       11646
       11647       11648       11649       11650       11651       11652
       11653       11654       11655       11656       11657       11658
       11659       11660       11661       11662       11663       11664
       11665       11666       11667       11668       11669       11670
       11671       11672       11673       11674       11675       11676
       11677       11678       11679       11680       11681       11682
       11683       11684       11685       11686       11687       11688
       11689       11690       11691       11692       11693       11694
       11695       11696       11697       11698       11699       11700
       11701       11702       11703       11704       11705       11706
       11707       11708       11709       11710       11711       11712
       11713       11714       11715       11716       11717       11718
       11719       11720       11721       11722       11723       11724
       11725       11726       11727       11728       11729       11730
       11731       11732       11733       11734       11735       11736
       11737       11738       11739       11740       11741       11742
       11743       11744       11745       11746       11747       11748
       11749       11750       11751       11752       11753       11754
       11755       11756       11757       11758       11759       11760
       11761       11762       11763       11764       11765       11766
       11767       11768       11769       11770       11771       11772
       11773       11774       11775       11776       11777       11778
       11779       11780       11781       11782       11783       11784
       11785       11786       11787       11788       11789       11790
       11791       11792       11793       11794       11795       11796
       11797       11798       11799       11800       11801       11802
       11803       11804       11805       11806       11807       11808
       11809       11810       11811       11812       11813       11814
       11815       11816       11817       11818       11819       11820
       11821       11822       11823       11824       11825       11826
       11827       11828       11829       11830       11831       11832
       11833       11834       11835       11836       11837       11838
       11839       11840       11841       11842       11843       11844
       11845       11846       11847       11848       11849       11850
       11851       11852       11853       11854       11855       11856
       11857       11858       11859       11860       11861       11862
       11863       11864       11865       11866       11867       11868
       11869       11870       11871       11872       11873       11874
       11875       11876       11877       11878       11879       11880
       11881       11882       11883       11884       11885       11886
       11887       11888       11889       11890       11891       11892
       11893       11894       11895       12110       12111       12112
       12113       12114       12115       12116       12117       12118
       12119       12120       12121       12122       12123       12124
       12125       12126       12127       12128       12129       12130
       12211       12212       12213       12214       12215       12216
       12217       12218       12219       12220       12221       12222
       12223       12224       12225       12226       12227       12228
       12229       12230       12231       12232       12233       12234
       12235       12236       12237       12238       12239       12240
       12241       12242       12243       12244       12245       12246
       12247       12248       12249       12250       12251       12252
       12253       12254       12255       12256       12257       12258
       12259       12260       12261       12262       12263       12264
       12265       12266       12267       12268       12269       12270
       12271       12272       12273       12274       12275       12276
       12277       12278       12279       12280       12281       12282
       12283       12284       12285       12286       12287       12288
       12289       12290       12291       12292       12293       12294
       12295       12296       12297       12298       12299       12300
       12301       12302       12303       12304       12305       12306
       12307       12308       12309       12310       12311       12312
       12313       12314       12315       12316       12317       12318
       12319       12320       12321       12322       12323       12324
       12325       12326       12327       12328       12329       12330
       12331       12332       12333       12334       12335       12336
       12337       12338       12339       12340       12341       12342
       12343       12344       12345       12346       12347       12348
       12349       12350       12351       12352       12353       12354
       12355       12356       12357       12358       12359       12360
       12361       12362       12363       12364       12365       12366
       12367       12368       12369       12370       12371       12372
       12373       12374       12375       12376       12377       12378
       12379       12380       12381       12382       12383       12384
       12385       12386       12387       12388       12389       12390
       12391       12392       12393       12394       12395       12396
       12397       12398       12399       12400       12401       12402
       12403       12404       12405       12406       12407       12408
       12409       12410       12411       12412       12413       12414
       12415       12416       12417       12418       12419       12420
       12615       12616       12617       12618       12619       12620
       12621       12622       12623       12624       12625       12626
       12627       12628       12629       12630       12631       12632
       12633       12634       12635       12736       12737       12738
       12739       12740       12741       12742       12743       12744
       12745       12746       12747       12748       12749       12750
       12751       12752       12753       12754       12755       12756
       12757       12758       12759       12760       12761       12762
       12763       12764       12765       12766       12767       12768
       12769       12770       12771       12772       12773       12774
       12775       12776       12777       12778       12779       12780
       12781       12782       12783       12784       12785       12786
       12787       12788       12789       12790       12791       12792
       12793       12794       12795       12796       12797       12798
       12799       12800       12801       12802       12803       12804
       12805       12806       12807       12808       12809       12810
       12811       12812       12813       12814       12815       12816
       12817       12818       12819       12820       12821       12822
       12823       12824       12825       12826       12827       12828
       12829       12830       12831       12832       12833       12834
       12835       12836       12837       12838       12839       12840
       12841       12842       12843       12844       12845       12846
       12847       12848       12849       12850       12851       12852
       12853       12854       12855       12856       12857       12858
       12859       12860       12861       12862       12863       12864
       12865       12866       12867       12868       12869       12870
       12871       12872       12873       12874       12875       12876
       12877       12878       12879       12880       12881       12882
       12883       12884       12885       12886       12887       12888
       12889       12890       12891       12892       12893       12894
       12895       12896       12897       12898       12899       12900
       12901       12902       12903       12904       12905       12906
       12907       12908       12909       12910       12911       12912
       12913       12914       12915       12916       12917       12918
       12919       12920       12921       12922       12923       12924
       12925       12926       12927       12928       12929       12930
       12931       12932       12933       12934       12935       12936
       12937       12938       12939       12940       12941       12942
       12943       12944       12945       13475       13476       13477
       13478       13479       13480       13481       13482       13483
       13484       13485       13486       13487       13488       13489
       13490       13491       13492       13493       13494       13495
       13576       13577       13578       13579       13580       13581
       13582       13583       13584       13585       13586       13587
       13588       13589       13590       13591       13592       13593
       13594       13595       13596       13597       13598       13599
       13600       13601       13602       13603       13604       13605
       13606       13607       13608       13609       13610       13611
       13612       13613       13614       13615       13616       13617
       13618       13619       13620       13621       13622       13623
       13624       13625       13626       13627       13628       13629
       13630       13631       13632       13633       13634       13635
       13636       13637       13638       13639       13640       13641
       13642       13643       13644       13645       13646       13647
       13648       13649       13650       13651       13652       13653
       13654       13655       13656       13657       13658       13659
       13660       13661       13662       13663       13664       13665
       13666       13667       13668       13669       13670       13671
       13672       13673       13674       13675       13676       13677
       13678       13679       13680       13875       13876       13877
       13878       13879       13880       13881       13882       13883
       13884       13885       13886       13887       13888       13889
       13890       13891       13892       13893       13894       13895
       13996       13997       13998       13999       14000       14001
       14002       14003       14004       14005       14006       14007
       14008       14009       14010       14011       14012       14013
       14014       14015       14016       14017       14018       14019
       14020       14021       14022       14023       14024       14025
       14026       14027       14028       14029       14030       14031
       14032       14033       14034       14035       14036       14037
       14038       14039       14040       14041       14042       14043
       14044       14045       14046       14047       14048       14049
       14050       14051       14052       14053       14054       14055
       14056       14057       14058       14059       14060       14061
       14062       14063       14064       14065       14066       14067
       14068       14069       14070       14071       14072       14073
       14074       14075       14076       14077       14078       14079
       14080       14081       14082       14083       14084       14085
       14086       14087       14088       14089       14090       14091
       14092       14093       14094       14095       14096       14097
       14098       14099       14100       14101       14102       14103
       14104       14105       14106       14107       14108       14109
       14110       14111       14112       14113       14114       14115
       14116       14117       14118       14119       14120       14121
       14122       14123       14124       14125       14126       14127
       14128       14129       14130       14131       14132       14133
       14134       14135       14136       14137       14138       14139
       14140       14141       14142       14143       14144       14145
       14146       14147       14148       14149       14150       14151
       14152       14153       14154       14155       14156       14157
       14158       14159       14160       14161       14162       14163
       14164       14165       14166       14167       14168       14169
       14170       14171       14172       14173       14174       14175
       14176       14177       14178       14179       14180       14181
       14182       14183       14184       14185       14186       14187
       14188       14189       14190       14191       14192       14193
       14194       14195       14196       14197       14198       14199
       14200       14201       14202       14203       14204       14205
       14206       14207       14208       14209       14210       14211
       14212       14213       14214       14215       14216       14217
       14218       14219       14220       14221       14222       14223
       14224       14225       14226       14227       14228       14229
       14230       14231       14232       14233       14234       14235
       14236       14237       14238       14239       14240       14241
       14242       14243       14244       14245       14246       14247
       14248       14249       14250       14251       14252       14253
       14254       14255       14256       14257       14258       14259
       14260       14261       14262       14263       14264       14265
       14266       14267       14268       14269       14270       14271
       14272       14273       14274       14275       14276       14277
       14278       14279       14280       14281       14282       14283
       14284       14285       14286       14287       14288       14289
       14290       14291       14292       14293       14294       14295
       14296       14297       14298       14299       14300       14301
       14302       14303       14304       14305       14306       14307
       14308       14309       14310       14311       14312       14313
       14314       14315       14316       14317       14318       14319
       14320       14321       14322       14323       14324       14325
       14326       14327       14328       14329       14330       14331
       14332       14333       14334       14335       14336       14337
       14338       14339       14340       14341       14342       14343
       14344       14345       14346       14347       14348       14349
       14350       14351       14352       14353       14354       14355
       14356       14357       14358       14359       14360       14361
       14362       14363       14364       14365       14366       14367
       14368       14369       14370       14371       14372       14373
       14374       14375       14376       14377       14378       14379
       14380       14381       14382       14383       14384       14385
       14386       14387       14388       14389       14390       14391
       14392       14393       14394       14395       14396       14397
       14398       14399       14400       14401       14402       14403
       14404       14405       14406       14407       14408       14409
       14410       14411       14412       14413       14414       14415
       14500       14530       14531       14532       14533       14534
       14535       14536       14537       14538       14539       14540
       14541       14542       14543       14544       14545       14546
       14547       14548       14549       14735       14736       14737
       14738       14739       14740       14741       14742       14743
       14744       14745       14746       14747       14748       14749
       14750       14751       14752       14753       14754       14755
       14836       14837       14838       14839       14840       14841
       14842       14843       14844       14845       14846       14847
       14848       14849       14850       14851       14852       14853
       14854       14855       14856       14857       14858       14859
       14860       14861       14862       14863       14864       14865
       14866       14867       14868       14869       14870       14871
       14872       14873       14874       14875       14876       14877
       14878       14879       14880       14881       14882       14883
       14884       14885       14886       14887       14888       14889
       14890       14891       14892       14893       14894       14895
       14896       14897       14898       14899       14900       14901
       14902       14903       14904       14905       14906       14907
       14908       14909       14910       14911       14912       14913
       14914       14915       14916       14917       14918       14919
       14920       14921       14922       14923       14924       14925
       14926       14927       14928       14929       14930       14931
       14932       14933       14934       14935       14936       14937
       14938       14939       14940       14941       14942       14943
       14944       14945       14946       14947       14948       14949
       14950       14951       14952       14953       14954       14955
       14956       14957       14958       14959       14960       14961
       14962       14963       14964       14965       14966       14967
       14968       14969       14970       14971       14972       14973
       14974       14975       14976       14977       14978       14979
       14980       14981       14982       14983       14984       14985
       14986       14987       14988       14989       14990       14991
       14992       14993       14994       14995       14996       14997
       14998       14999       15000       15001       15002       15003
       15004       15005       15006       15007       15008       15009
       15010       15011       15012       15013       15014       15015
       15016       15017       15018       15019       15020       15021
       15022       15023       15024       15025       15026       15027
       15028       15029       15030       15031       15032       15033
       15034       15035       15036       15037       15038       15039
       15040       15041       15042       15043       15044       15045
       15046       15047       15048       15049       15050       15051
       15052       15053       15054       15055       15056       15057
       15058       15059       15060       15061       15062       15063
       15064       15065       15066       15067       15068       15069
       15070       15071       15072       15073       15074       15075
       15076       15077       15078       15079       15080       15081
       15082       15083       15084       15085       15086       15087
       15088       15089       15090       15091       15092       15093
       15094       15095       15096       15097       15098       15099
       15100       15101       15102       15103       15104       15105
       15106       15107       15108       15109       15110       15111
       15112       15113       15114       15115       15116       15117
       15118       15119       15120       15121       15122       15123
       15124       15125       15126       15127       15128       15129
       15260       15261       15262       15263       15264       15265
       15266       15267       15268       15269       15270       15271
       15272       15273       15274       15275       15276       15277
       15278       15279       15280       15361       15362       15363
       15364       15365       15366       15367       15368       15369
       15370       15371       15372       15373       15374       15375
       15376       15377       15378       15379       15380       15381
       15382       15383       15384       15385       15386       15387
       15388       15389       15390       15391       15392       15393
       15394       15395       15396       15397       15398       15399
       15400       15401       15402       15403       15404       15405
       15406       15407       15408       15409       15410       15411
       15412       15413       15414       15415       15416       15417
       15418       15419       15420       15421       15422       15423
       15424       15425       15426       15427       15428       15429
       15430       15431       15432       15433       15434       15435
       15436       15437       15438       15439       15440       15441
       15442       15443       15444       15445       15446       15447
       15448       15449       15450       15451       15452       15453
       15454       15455       15456       15457       15458       15459
       15460       15461       15462       15463       15464       15465
       15466       15467       15468       15469       15470       15471
       15472       15473       15474       15475       15476       15477
       15478       15479       15480       15481       15482       15483
       15484       15485       15486       15487       15488       15489
       15490       15491       15492       15493       15494       15495
       15496       15497       15498       15499       15500       15501
       15502       15503       15504       15505       15506       15507
       15508       15509       15510       15511       15512       15513
       15514       15515       15516       15517       15518       15519
       15520       15521       15522       15523       15524       15525
       15526       15527       15528       15529       15530       15531
       15532       15533       15534       15535       15536       15537
       15538       15539       15540       15541       15542       15543
       15544       15545       15546       15547       15548       15549
       15550       15551       15552       15553       15554       15555
       15556       15557       15558       15559       15560       15561
       15562       15563       15564       15565       15566       15567
       15568       15569       15570       15765       15766       15767
       15768       15769       15770       15771       15772       15773
       15774       15775       15776       15777       15778       15779
       15780       15781       15782       15783       15784       15785
       15886       15887       15888       15889       15890       15891
       15892       15893       15894       15895       15896       15897
       15898       15899       15900       15901       15902       15903
       15904       15905       15906       15907       15908       15909
       15910       15911       15912       15913       15914       15915
       15916       15917       15918       15919       15920       15921
       15922       15923       15924       15925       15926       15927
       15928       15929       15930       15931       15932       15933
       15934       15935       15936       15937       15938       15939
       15940       15941       15942       15943       15944       15945
       15946       15947       15948       15949       15950       15951
       15952       15953       15954       15955       15956       15957
       15958       15959       15960       15961       15962       15963
       15964       15965       15966       15967       15968       15969
       15970       15971       15972       15973       15974       15975
       15976       15977       15978       15979       15980       15981
       15982       15983       15984       15985       15986       15987
       15988       15989       15990       15991       15992       15993
       15994       15995       15996       15997       15998       15999
       16000       16001       16002       16003       16004       16005
       16006       16007       16008       16009       16010       16011
       16012       16013       16014       16015       16016       16017
       16018       16019       16020       16021       16022       16023
       16024       16025       16026       16027       16028       16029
       16030       16031       16032       16033       16034       16035
       16036       16037       16038       16039       16040       16041
       16042       16043       16044       16045       16046       16047
       16048       16049       16050       16051       16052       16053
       16054       16055       16056       16057       16058       16059
       16060       16061       16062       16063       16064       16065
       16066       16067       16068       16069       16070       16071
       16072       16073       16074       16075       16076       16077
       16078       16079       16080       16081       16082       16083
       16084       16085       16086       16087       16088       16089
       16090       16091       16092       16093       16094       16095
       16096       16097       16098       16099       16100       16101
       16102       16103       16104       16105       16106       16107
       16108       16109       16110       16111       16112       16113
       16114       16115       16116       16117       16118       16119
       16120       16121       16122       16123       16124       16125
       16126       16127       16128       16129       16130       16131
       16132       16133       16134       16135       16136       16137
       16138       16139       16140       16141       16142       16143
       16144       16145       16146       16147       16148       16149
       16150       16151       16152       16153       16154       16155
       16156       16157       16158       16159       16160       16161
       16162       16163       16164       16165       16166       16167
       16168       16169       16170       16171       16172       16173
       16174       16175       16176       16177       16178       16179
       16180       16181       16182       16183       16184       16185
       16186       16187       16188       16189       16190       16191
       16192       16193       16194       16195       16196       16197
       16198       16199       16200       16390       16391       16392
       16393       16394       16395       16396       16397       16398
       16399       16400       16401       16402       16403       16404
       16405       16406       16407       16408       16409       16410
       16411       16412       16413       16414       16415       16416
       16417       16418       16419       16420       16421       16422
       16423       16424       16425       16426       16427       16428
       16429       16430       16431       16432       16433       16434
       16435       16436       16437       16438       16439       16440
       16441       16442       16443       16444       16445       16446
       16447       16448       16449       16450       16451       16452
       16453       16454       16455       16456       16457       16458
       16459       16460       16461       16462       16463       16464
       16465       16466       16467       16468       16469       16470
       16471       16472       16473       16474       16475       16476
       16477       16478       16479       16480       16481       16482
       16483       16484       16485       16486       16487       16488
       16489       16490       16491       16492       16493       16494
       16495       16496       16497       16498       16499       16500
       16501       16502       16503       16504       16505       16506
       16507       16508       16509       16510       16511       16512
       16513       16514       16515       16516       16517       16518
       16519       16520       16521       16522       16523       16524
       16525       16526       16527       16528       16529       16530
       16531       16532       16533       16534       16535       16536
       16537       16538       16539       16540       16541       16542
       16543       16544       16545       16546       16547       16548
       16549       16550       16551       16552       16553       16554
       16555       16556       16557       16558       16559       16560
       16561       16562       16563       16564       16565       16566
       16567       16568       16569       16570       16571       16572
       16573       16574       16575       16576       16577       16578
       16579       16580       16581       16582       16583       16584
       16585       16586       16587       16588       16589       16590
       16591       16592       16593       16594       16595       16596
       16597       16598       16599       16600       16601       16602
       16603       16604       16605       16606       16607       16608
       16609       16610       16611       16612       16613       16614
       16615       16616       16617       16618       16619       16620
       16621       16622       16623       16624       16625       16626
       16627       16628       16629       16630       16631       16632
       16633       16634       16635       16636       16637       16638
       16639       16640       16641       16642       16643       16644
       16645       16646       16647       16648       16649       16650
       16651       16652       16653       16654       16655       16656
       16657       16658       16659       16660       16661       16662
       16663       16664       16665       16666       16667       16668
       16669       16670       16671       16672       16673       16674
       16675       16676       16677       16678       16679       16680
       16681       16682       16683       16684       16685       16686
       16687       16688       16689       16690       16691       16692
       16693       16694       16695       16696       16697       16698
       16699       16700       16701       16702       16703       16704
       16705       16706       16707       16708       16709       16710
       16711       16712       16713       16714       16715       16716
       16717       16718       16719       16720       16721       16722
       16723       16724       16725
 
 *** Warning 30131 (INI+131)
     total number of massless nodes = 6039

     slave surface of interface   =         1
     type                         =        26
     surface timestep             = 1.990E-07
     controlling slave node ID    =     15135
     part ID of slave node        =         1
     current minimum time step    = 1.990E-07

 The LS-DYNA time step size should not exceed     1.990E-07
 to avoid contact instabilities.  If the step size is
 bigger then scale the penalty of the offending surface.

 S t o r a g e   a l l o c a t i o n   

 Memory required to begin solution      :      1412489
 Additional dynamically allocated memory:      1095842
                                   Total:      2508331
       1 t 0.0000E+00 dt 2.83E-07 flush i/o buffers            02/08/14 15:24:26
       1 t 0.0000E+00 dt 2.83E-07 write d3plot file            02/08/14 15:24:26
    3623 t 9.9996E-04 dt 2.41E-07 write d3plot file            02/08/14 15:24:53
    5000 t 1.3027E-03 dt 2.06E-07 flush i/o buffers            02/08/14 15:25:03
    8629 t 1.9998E-03 dt 1.74E-07 write d3plot file            02/08/14 15:25:31
   10000 t 2.2219E-03 dt 1.49E-07 flush i/o buffers            02/08/14 15:25:41
   15000 t 2.7787E-03 dt 8.18E-08 flush i/o buffers            02/08/14 15:26:21
   17962 t 3.0000E-03 dt 6.87E-08 write d3plot file            02/08/14 15:26:44
   20000 t 3.1335E-03 dt 6.25E-08 flush i/o buffers            02/08/14 15:27:00
   25000 t 3.4170E-03 dt 5.22E-08 flush i/o buffers            02/08/14 15:27:41
   30000 t 3.6748E-03 dt 5.10E-08 flush i/o buffers            02/08/14 15:28:23
   35000 t 3.9282E-03 dt 5.03E-08 flush i/o buffers            02/08/14 15:29:06
   36431 t 4.0000E-03 dt 5.00E-08 write d3plot file            02/08/14 15:29:17
   40000 t 4.1771E-03 dt 4.93E-08 flush i/o buffers            02/08/14 15:29:47
   45000 t 4.4207E-03 dt 4.85E-08 flush i/o buffers            02/08/14 15:30:29
   50000 t 4.6632E-03 dt 4.85E-08 flush i/o buffers            02/08/14 15:31:10
   55000 t 4.9052E-03 dt 4.82E-08 flush i/o buffers            02/08/14 15:31:51
   56981 t 5.0000E-03 dt 4.75E-08 write d3plot file            02/08/14 15:32:07
 
 *** termination time reached ***
   56981 t 5.0000E-03 dt 4.75E-08 write d3dump01 file          02/08/14 15:32:07
   56981 t 5.0000E-03 dt 4.75E-08 write d3plot file            02/08/14 15:32:07

 N o r m a l    t e r m i n a t i o n                          02/08/14 15:32:07

 S t o r a g e   a l l o c a t i o n   

 Memory required to complete solution   :      1412489
 Additional dynamically allocated memory:      1095846
                                   Total:      2508335

 T i m i n g   i n f o r m a t i o n
                        CPU(seconds)   %CPU  Clock(seconds) %Clock
  ----------------------------------------------------------------
  Initialization ....... 5.0000E+00    1.07     5.1500E+00    1.10
  Element processing ... 3.6000E+02   77.09     3.5421E+02   75.86
  Binary databases ..... 1.0000E+00    0.21     3.7200E-01    0.08
  ASCII database ....... 3.0000E+00    0.64     2.5430E+00    0.54
  Contact algorithm .... 9.8000E+01   20.99     1.0164E+02   21.77
    Interf. ID         1 9.8000E+01   20.99     1.0043E+02   21.51
  Contact entities ..... 0.0000E+00    0.00     0.0000E+00    0.00
  Rigid bodies ......... 0.0000E+00    0.00     3.0130E+00    0.65
  Implicit Nonlinear ... 0.0000E+00    0.00     0.0000E+00    0.00
  Implicit Lin. Alg. ... 0.0000E+00    0.00     0.0000E+00    0.00
  ----------------------------------------------------------------
  T o t a l s            4.6700E+02  100.00     4.6693E+02  100.00

 Problem time       =    5.0000E-03
 Problem cycle      =     56981
 Total CPU time     =       467 seconds (   0 hours  7 minutes 47 seconds)
 CPU time per zone cycle  =       696 nanoseconds
 Clock time per zone cycle=       696 nanoseconds

 Number of CPU's    2
 NLQ used/max     136/  136
 Start time   02/08/2014 15:24:20  
 End time     02/08/2014 15:32:07  
 Elapsed time     467 seconds(   0 hours  7 min. 47 sec.) for   56981 cycles

 N o r m a l    t e r m i n a t i o n                          02/08/14 15:32:07
