 CAAofS - Semestral Project - D.Bro¿yna                                  
                         ls-dyna ls971d.74879 R6.1.0    date 06/26/2012

{BEGIN LEGEND}
 Entity #        Title
        1     contact                                                               
{END LEGEND}

 interface number,         1,is single surface-resultants are undefined
 interface number,         1,is single surface-resultants are undefined
 interface number,         1,is single surface-resultants are undefined
 interface number,         1,is single surface-resultants are undefined
 interface number,         1,is single surface-resultants are undefined
 interface number,         1,is single surface-resultants are undefined
 interface number,         1,is single surface-resultants are undefined
 interface number,         1,is single surface-resultants are undefined
 interface number,         1,is single surface-resultants are undefined
 interface number,         1,is single surface-resultants are undefined
 interface number,         1,is single surface-resultants are undefined
 interface number,         1,is single surface-resultants are undefined
 interface number,         1,is single surface-resultants are undefined
 interface number,         1,is single surface-resultants are undefined
 interface number,         1,is single surface-resultants are undefined
 interface number,         1,is single surface-resultants are undefined
 interface number,         1,is single surface-resultants are undefined
 interface number,         1,is single surface-resultants are undefined
 interface number,         1,is single surface-resultants are undefined
 interface number,         1,is single surface-resultants are undefined
 interface number,         1,is single surface-resultants are undefined
 interface number,         1,is single surface-resultants are undefined
 interface number,         1,is single surface-resultants are undefined
 interface number,         1,is single surface-resultants are undefined
 interface number,         1,is single surface-resultants are undefined
 interface number,         1,is single surface-resultants are undefined
 interface number,         1,is single surface-resultants are undefined
 interface number,         1,is single surface-resultants are undefined
 interface number,         1,is single surface-resultants are undefined
 interface number,         1,is single surface-resultants are undefined
 interface number,         1,is single surface-resultants are undefined
 interface number,         1,is single surface-resultants are undefined
 interface number,         1,is single surface-resultants are undefined
 interface number,         1,is single surface-resultants are undefined
 interface number,         1,is single surface-resultants are undefined
 interface number,         1,is single surface-resultants are undefined
 interface number,         1,is single surface-resultants are undefined
 interface number,         1,is single surface-resultants are undefined
 interface number,         1,is single surface-resultants are undefined
 interface number,         1,is single surface-resultants are undefined
 interface number,         1,is single surface-resultants are undefined
 interface number,         1,is single surface-resultants are undefined
 interface number,         1,is single surface-resultants are undefined
 interface number,         1,is single surface-resultants are undefined
 interface number,         1,is single surface-resultants are undefined
 interface number,         1,is single surface-resultants are undefined
 interface number,         1,is single surface-resultants are undefined
 interface number,         1,is single surface-resultants are undefined
 interface number,         1,is single surface-resultants are undefined
 interface number,         1,is single surface-resultants are undefined
 interface number,         1,is single surface-resultants are undefined
 interface number,         1,is single surface-resultants are undefined
 interface number,         1,is single surface-resultants are undefined
 interface number,         1,is single surface-resultants are undefined
 interface number,         1,is single surface-resultants are undefined
 interface number,         1,is single surface-resultants are undefined
 interface number,         1,is single surface-resultants are undefined
 interface number,         1,is single surface-resultants are undefined
 interface number,         1,is single surface-resultants are undefined
 interface number,         1,is single surface-resultants are undefined
 interface number,         1,is single surface-resultants are undefined
 interface number,         1,is single surface-resultants are undefined
 interface number,         1,is single surface-resultants are undefined
 interface number,         1,is single surface-resultants are undefined
 interface number,         1,is single surface-resultants are undefined
 interface number,         1,is single surface-resultants are undefined
 interface number,         1,is single surface-resultants are undefined
 interface number,         1,is single surface-resultants are undefined
 interface number,         1,is single surface-resultants are undefined
 interface number,         1,is single surface-resultants are undefined
 interface number,         1,is single surface-resultants are undefined
 interface number,         1,is single surface-resultants are undefined
 interface number,         1,is single surface-resultants are undefined
 interface number,         1,is single surface-resultants are undefined
 interface number,         1,is single surface-resultants are undefined
 interface number,         1,is single surface-resultants are undefined
 interface number,         1,is single surface-resultants are undefined
 interface number,         1,is single surface-resultants are undefined
 interface number,         1,is single surface-resultants are undefined
 interface number,         1,is single surface-resultants are undefined
 interface number,         1,is single surface-resultants are undefined
 interface number,         1,is single surface-resultants are undefined
 interface number,         1,is single surface-resultants are undefined
 interface number,         1,is single surface-resultants are undefined
 interface number,         1,is single surface-resultants are undefined
 interface number,         1,is single surface-resultants are undefined
 interface number,         1,is single surface-resultants are undefined
 interface number,         1,is single surface-resultants are undefined
 interface number,         1,is single surface-resultants are undefined
 interface number,         1,is single surface-resultants are undefined
 interface number,         1,is single surface-resultants are undefined
 interface number,         1,is single surface-resultants are undefined
 interface number,         1,is single surface-resultants are undefined
 interface number,         1,is single surface-resultants are undefined
 interface number,         1,is single surface-resultants are undefined
 interface number,         1,is single surface-resultants are undefined
 interface number,         1,is single surface-resultants are undefined
 interface number,         1,is single surface-resultants are undefined
 interface number,         1,is single surface-resultants are undefined
 interface number,         1,is single surface-resultants are undefined
 interface number,         1,is single surface-resultants are undefined
 interface number,         1,is single surface-resultants are undefined
 interface number,         1,is single surface-resultants are undefined
 interface number,         1,is single surface-resultants are undefined
 interface number,         1,is single surface-resultants are undefined
 interface number,         1,is single surface-resultants are undefined
 interface number,         1,is single surface-resultants are undefined
 interface number,         1,is single surface-resultants are undefined
 interface number,         1,is single surface-resultants are undefined
 interface number,         1,is single surface-resultants are undefined
 interface number,         1,is single surface-resultants are undefined
 interface number,         1,is single surface-resultants are undefined
 interface number,         1,is single surface-resultants are undefined
 interface number,         1,is single surface-resultants are undefined
 interface number,         1,is single surface-resultants are undefined
 interface number,         1,is single surface-resultants are undefined
 interface number,         1,is single surface-resultants are undefined
 interface number,         1,is single surface-resultants are undefined
 interface number,         1,is single surface-resultants are undefined
 interface number,         1,is single surface-resultants are undefined
 interface number,         1,is single surface-resultants are undefined
 interface number,         1,is single surface-resultants are undefined
 interface number,         1,is single surface-resultants are undefined
 interface number,         1,is single surface-resultants are undefined
 interface number,         1,is single surface-resultants are undefined
 interface number,         1,is single surface-resultants are undefined
 interface number,         1,is single surface-resultants are undefined
 interface number,         1,is single surface-resultants are undefined
 interface number,         1,is single surface-resultants are undefined
 interface number,         1,is single surface-resultants are undefined
 interface number,         1,is single surface-resultants are undefined
 interface number,         1,is single surface-resultants are undefined
 interface number,         1,is single surface-resultants are undefined
 interface number,         1,is single surface-resultants are undefined
 interface number,         1,is single surface-resultants are undefined
 interface number,         1,is single surface-resultants are undefined
 interface number,         1,is single surface-resultants are undefined
 interface number,         1,is single surface-resultants are undefined
 interface number,         1,is single surface-resultants are undefined
 interface number,         1,is single surface-resultants are undefined
 interface number,         1,is single surface-resultants are undefined
 interface number,         1,is single surface-resultants are undefined
 interface number,         1,is single surface-resultants are undefined
 interface number,         1,is single surface-resultants are undefined
 interface number,         1,is single surface-resultants are undefined
 interface number,         1,is single surface-resultants are undefined
 interface number,         1,is single surface-resultants are undefined
 interface number,         1,is single surface-resultants are undefined
 interface number,         1,is single surface-resultants are undefined
 interface number,         1,is single surface-resultants are undefined
 interface number,         1,is single surface-resultants are undefined
 interface number,         1,is single surface-resultants are undefined
 interface number,         1,is single surface-resultants are undefined
 interface number,         1,is single surface-resultants are undefined
 interface number,         1,is single surface-resultants are undefined
 interface number,         1,is single surface-resultants are undefined
 interface number,         1,is single surface-resultants are undefined
 interface number,         1,is single surface-resultants are undefined
 interface number,         1,is single surface-resultants are undefined
 interface number,         1,is single surface-resultants are undefined
 interface number,         1,is single surface-resultants are undefined
 interface number,         1,is single surface-resultants are undefined
 interface number,         1,is single surface-resultants are undefined
 interface number,         1,is single surface-resultants are undefined
 interface number,         1,is single surface-resultants are undefined
 interface number,         1,is single surface-resultants are undefined
 interface number,         1,is single surface-resultants are undefined
 interface number,         1,is single surface-resultants are undefined
 interface number,         1,is single surface-resultants are undefined
 interface number,         1,is single surface-resultants are undefined
 interface number,         1,is single surface-resultants are undefined
 interface number,         1,is single surface-resultants are undefined
 interface number,         1,is single surface-resultants are undefined
 interface number,         1,is single surface-resultants are undefined
 interface number,         1,is single surface-resultants are undefined
 interface number,         1,is single surface-resultants are undefined
 interface number,         1,is single surface-resultants are undefined
 interface number,         1,is single surface-resultants are undefined
 interface number,         1,is single surface-resultants are undefined
 interface number,         1,is single surface-resultants are undefined
 interface number,         1,is single surface-resultants are undefined
 interface number,         1,is single surface-resultants are undefined
 interface number,         1,is single surface-resultants are undefined
 interface number,         1,is single surface-resultants are undefined
 interface number,         1,is single surface-resultants are undefined
 interface number,         1,is single surface-resultants are undefined
 interface number,         1,is single surface-resultants are undefined
 interface number,         1,is single surface-resultants are undefined
 interface number,         1,is single surface-resultants are undefined
 interface number,         1,is single surface-resultants are undefined
 interface number,         1,is single surface-resultants are undefined
 interface number,         1,is single surface-resultants are undefined
 interface number,         1,is single surface-resultants are undefined
 interface number,         1,is single surface-resultants are undefined
 interface number,         1,is single surface-resultants are undefined
 interface number,         1,is single surface-resultants are undefined
 interface number,         1,is single surface-resultants are undefined
 interface number,         1,is single surface-resultants are undefined
 interface number,         1,is single surface-resultants are undefined
 interface number,         1,is single surface-resultants are undefined
 interface number,         1,is single surface-resultants are undefined
 interface number,         1,is single surface-resultants are undefined
