 CAAofS - Semestral Project - D.Bro¿yna                                  
                         ls-dyna ls971d.74879 R6.1.0    date 06/26/2012
